# CIF file generated by openbabel 3.1.1, see https://openbabel.org
data_I
_chemical_name_common ''
_cell_length_a 6.66879
_cell_length_b 6.66891
_cell_length_c 11.4391
_cell_angle_alpha 90
_cell_angle_beta 90
_cell_angle_gamma 90
loop_
    _atom_site_label
    _atom_site_type_symbol
    _atom_site_fract_x
    _atom_site_fract_y
    _atom_site_fract_z
    _atom_site_occupancy
    H0       H        0.00000    0.00000    0.16515    1.000
    P1       P        0.00000    0.00000    0.58411    1.000
    P2       P        0.00000    0.50000    0.58406    1.000
    P3       P        0.50000    0.00000    0.58417    1.000
    P4       P        0.50000    0.50000    0.58401    1.000
    P5       P        0.25218    0.25334    0.08215    1.000
    P6       P        0.25218    0.74666    0.08215    1.000
    P7       P        0.74782    0.25334    0.08215    1.000
    P8       P        0.74782    0.74666    0.08215    1.000
    P9       P        0.25225    0.00000    0.33607    1.000
    P10      P        0.25191    0.50000    0.33418    1.000
    P11      P        0.74775    0.00000    0.33607    1.000
    P12      P        0.74809    0.50000    0.33418    1.000
    P13      P        0.00000    0.25097    0.83288    1.000
    P14      P        0.00000    0.74903    0.83288    1.000
    P15      P        0.50000    0.24947    0.83301    1.000
    P16      P        0.50000    0.75053    0.83301    1.000
    Ta17     Ta       0.00000    0.00000    0.99832    1.000
    Ta18     Ta       0.00000    0.50000    0.99984    1.000
    Ta19     Ta       0.50000    0.00000    0.00002    1.000
    Ta20     Ta       0.50000    0.50000    0.99874    1.000
    Ta21     Ta       0.25006    0.25055    0.50109    1.000
    Ta22     Ta       0.25006    0.74945    0.50109    1.000
    Ta23     Ta       0.74994    0.25055    0.50109    1.000
    Ta24     Ta       0.74994    0.74945    0.50109    1.000
    Ta25     Ta       0.00000    0.25240    0.25121    1.000
    Ta26     Ta       0.00000    0.74760    0.25121    1.000
    Ta27     Ta       0.50000    0.24893    0.24977    1.000
    Ta28     Ta       0.50000    0.75107    0.24977    1.000
    Ta29     Ta       0.24965    0.00000    0.75068    1.000
    Ta30     Ta       0.25043    0.50000    0.75043    1.000
    Ta31     Ta       0.75035    0.00000    0.75068    1.000
    Ta32     Ta       0.74957    0.50000    0.75043    1.000